286
Nanotube
C 8.617921 4.133073 0.676448
O 8.445317 4.475916 3.341240
C 5.710055 7.664602 0.676448
O 5.397895 7.887961 3.341240
C 1.494085 9.440263 0.676448
O 1.113880 9.492970 3.341240
C -3.064163 9.053273 0.676448
O -3.425311 8.923253 3.341240
C -6.920447 6.592288 0.676448
O -7.179805 6.309327 3.341240
C -9.191341 2.621089 0.676448
O -9.289492 2.250010 3.341240
C -9.356609 -1.950570 0.676448
O -9.271068 -2.324757 3.341240
C -7.378391 -6.075377 0.676448
O -7.128755 -6.366950 3.341240
C -3.709872 -8.808388 0.676448
O -3.353329 -8.950552 3.341240
C 0.808534 -9.523504 0.676448
O 1.190303 -9.483690 3.341240
C 5.141714 -8.056900 0.676448
O 5.461252 -7.844229 3.341240
C 8.296990 -4.744557 0.676448
O 8.481093 -4.407750 3.341240
C 9.551525 -0.345293 0.676448
O 9.558019 0.038492 3.341240
C 7.050453 6.453059 4.709652
O 6.785905 6.731173 7.374445
C 3.243980 8.990409 4.709652
O 2.880488 9.113725 7.374445
C -1.305650 9.468164 4.709652
O -1.684814 9.408433 7.374445
C -5.556171 7.776877 4.709652
O -5.864145 7.547781 7.374445
C -8.533840 4.304002 4.709652
O -8.700071 3.958024 7.374445
C -9.556509 -0.154869 4.709652
O -9.542916 -0.538468 7.374445
C -8.389897 -4.578261 4.709652
O -8.199594 -4.911604 7.374445
C -5.301261 -7.952829 4.709652
O -4.977844 -8.159551 7.374445
C -0.998170 -9.505499 4.709652
O -0.615729 -9.538243 7.374445
C 3.533590 -8.880574 4.709652
O 3.887441 -8.731838 7.374445
C 7.255847 -6.221217 4.709652
O 7.500046 -5.925075 7.374445
C 9.315877 -2.136653 4.709652
O 9.394480 -1.760948 7.374445
C 9.241752 2.437391 4.709652
O 9.136753 2.806591 7.374445
C 4.877949 8.219274 8.742857
O 4.544159 8.408794 11.407649
C 0.499522 9.544702 8.742857
O 0.115892 9.557393 11.407649
C -3.993340 8.683553 8.742857
O -4.338925 8.516509 11.407649
C -7.571375 5.833107 8.742857
O -7.799747 5.524595 11.407649
C -9.414899 1.646366 8.742857
O -9.473740 1.267063 11.407649
C -9.101584 -2.917537 8.742857
O -8.977414 -3.280738 11.407649
C -6.703205 -6.813068 8.742857
O -6.424470 -7.076961 11.407649
C -2.769203 -9.147807 8.742857
O -2.399758 -9.251938 11.407649
C 1.799190 -9.386893 8.742857
O 2.174710 -9.307408 11.407649
C 5.955411 -7.475556 8.742857
O 6.250978 -7.230662 11.407649
C 8.747318 -3.851659 8.742857
O 8.895222 -3.497459 11.407649
C 9.535321 0.654607 8.742857
O 9.501678 1.036970 11.407649
C 8.138896 5.010910 8.742857
O 7.931415 5.333841 11.407649
C 2.286842 9.280151 12.776061
O 1.912455 9.364813 15.440854
C -2.287803 9.279914 12.776061
O -2.658650 9.180892 15.440854
C -6.338340 7.153761 12.776061
O -6.620691 6.893740 15.440854
C -8.936840 3.388767 12.776061
O -9.066012 3.027315 15.440854
C -9.488018 -1.152552 12.776061
O -9.434418 -1.532631 15.440854
C -7.865605 -5.429836 12.776061
O -7.641513 -5.741470 15.440854
C -4.441276 -8.463210 12.776061
O -4.098029 -8.635008 15.440854
C 0.000495 -9.557764 12.776061
O 0.384263 -9.550369 15.440854
C 4.442152 -8.462750 12.776061
O 4.778526 -8.277855 15.440854
C 7.866167 -5.429022 12.776061
O 8.078086 -5.108985 15.440854
C 9.488137 -1.151570 12.776061
O 9.527054 -0.769708 15.440854
C 8.936489 3.389692 12.776061
O 8.793488 3.745900 15.440854
C 6.337600 7.154417 12.776061
O 6.045441 7.403367 15.440854
C -0.500510 9.544650 16.809266
O -0.883366 9.517188 19.474058
C -4.878799 8.218769 16.809266
O -5.205040 8.016531 19.474058
C -8.139415 5.010068 16.809266
O -8.334301 4.679383 19.474058
C -9.535389 0.653620 16.809266
O -9.554275 0.270245 19.474058
C -8.746920 -3.852564 16.809266
O -8.585479 -4.200803 19.474058
C -5.954637 -7.476172 16.809266
O -5.649854 -7.709497 19.474058
C -1.798218 -9.387080 16.809266
O -1.419915 -9.452039 19.474058
C 2.770150 -9.147520 16.809266
O 3.135309 -9.029232 19.474058
C 6.703911 -6.812374 16.809266
O 6.972272 -6.537937 19.474058
C 9.101886 -2.916595 16.809266
O 9.211971 -2.548880 19.474058
C 9.414729 1.647341 16.809266
O 9.341319 2.024096 19.474058
C 7.570771 5.833891 16.809266
O 7.330683 6.133375 19.474058
C 3.992441 8.683966 16.809266
O 3.640676 8.837572 19.474058
C -3.244910 8.990073 20.842471
O -3.603381 8.852844 23.507263
C -7.051121 6.452329 20.842471
O -7.304757 6.164229 23.507263
C -9.242004 2.436435 20.842471
O -9.332702 2.063464 23.507263
C -9.315656 -2.137618 20.842471
O -9.222636 -2.510016 23.507263
C -7.255203 -6.221968 20.842471
O -6.999776 -6.508482 23.507263
C -3.532671 -8.880940 20.842471
O -3.173352 -9.015933 23.507263
C 0.999154 -9.505396 20.842471
O 1.380049 -9.457942 23.507263
C 5.302085 -7.952280 20.842471
O 5.617298 -7.733251 23.507263
C 8.390371 -4.577393 20.842471
O 8.567691 -4.236965 23.507263
C 9.556525 -0.153880 20.842471
O 9.555329 0.229958 23.507263
C 8.533394 4.304885 20.842471
O 8.353957 4.644201 23.507263
C 5.555366 7.777452 20.842471
O 5.238794 7.994513 23.507263
C 1.304670 9.468299 20.842471
O 0.923486 9.513379 23.507263
C -5.710849 7.664011 24.875675
O -6.014172 7.428791 27.540468
C -8.618349 4.132181 24.875675
O -8.777616 3.782943 27.540468
C -9.551489 -0.346282 24.875675
O -9.530214 -0.729532 27.540468
C -8.296498 -4.745416 24.875675
O -8.099555 -5.074880 27.540468
C -5.140880 -8.057432 24.875675
O -4.813386 -8.257634 27.540468
C -0.807548 -9.523588 24.875675
O -0.424528 -9.548664 27.540468
C 3.710784 -8.808004 24.875675
O 4.061585 -8.652210 27.540468
C 7.379020 -6.074613 24.875675
O 7.617237 -5.773639 27.540468
C 9.356811 -1.949601 24.875675
O 9.427872 -1.572397 27.540468
C 9.191069 2.622040 24.875675
O 9.078695 2.989062 27.540468
C 6.919765 6.593004 24.875675
O 6.649699 6.865763 27.540468
C 3.063226 9.053591 24.875675
O 2.697336 9.169601 27.540468
C -1.495062 9.440108 24.875675
O -1.872953 9.372793 27.540468
C -7.686709 5.680260 28.908880
O -7.908855 5.367236 31.573672
C -9.445991 1.457429 28.908880
O -9.497222 1.077023 31.573672
C -9.041311 -3.099282 28.908880
O -8.909890 -3.459922 31.573672
C -6.565375 -6.945985 28.908880
O -6.281409 -7.204241 31.573672
C -2.585391 -9.201446 28.908880
O -2.213934 -9.298156 31.573672
C 1.986875 -9.348967 28.908880
O 2.360727 -9.261974 31.573672
C 6.103972 -7.354752 28.908880
O 6.394574 -7.103986 31.573672
C 8.822723 -3.675652 28.908880
O 8.963501 -3.318561 31.573672
C 9.520294 0.845495 28.908880
O 9.478998 1.227107 31.573672
C 8.036880 5.172950 28.908880
O 7.822971 5.491660 31.573672
C 4.712314 8.315344 28.908880
O 4.374795 8.498139 31.573672
C 0.308214 9.552793 28.908880
O -0.075593 9.557797 31.573672
C -4.166494 8.601813 28.908880
O -4.508664 8.427879 31.573672
C -9.002933 3.209057 32.942084
O -9.124838 2.845090 35.606877
C -9.463025 -1.342393 32.942084
O -9.401822 -1.721322 35.606877
C -7.755251 -5.586317 32.942084
O -7.524962 -5.893399 35.606877
C -4.270843 -8.550483 32.942084
O -3.924223 -8.715370 35.606877
C 0.191964 -9.555836 32.942084
O 0.575507 -9.540754 35.606877
C 4.610794 -8.372063 32.942084
O 4.943396 -8.180467 35.606877
C 7.973347 -5.270351 32.942084
O 8.178812 -4.946133 35.606877
C 9.509302 -0.961265 32.942084
O 9.540561 -0.578700 35.606877
C 8.866791 3.568035 32.942084
O 8.716683 3.921307 35.606877
C 6.193005 7.279941 32.942084
O 5.895917 7.522989 35.606877
C 2.100476 9.324101 32.942084
O 1.724468 9.401245 35.606877
C -2.473247 9.232221 32.942084
O -2.842036 9.125789 35.606877
C -6.480378 7.025351 32.942084
O -6.757464 6.759725 35.606877
C -9.546569 0.462468 36.975289
O -9.557771 0.078792 39.640081
C -8.667987 -4.027017 36.975289
O -8.499602 -4.371951 39.640081
C -5.803673 -7.593960 36.975289
O -5.494277 -7.821133 39.640081
C -1.609808 -9.421219 36.975289
O -1.230279 -9.478587 39.640081
C 2.952845 -9.090190 36.975289
O 3.315561 -8.964611 39.640081
C 6.839036 -6.676708 36.975289
O 7.101846 -6.396951 39.640081
C 9.158487 -2.733673 36.975289
O 9.261184 -2.363826 39.640081
C 9.379839 1.835614 36.975289
O 9.298896 2.210822 39.640081
C 7.452382 5.984384 36.975289
O 7.206343 6.278998 39.640081
C 3.817675 8.762203 36.975289
O 3.462904 8.908732 39.640081
C -0.691616 9.532708 36.975289
O -1.073845 9.497582 39.640081
C -5.042465 8.119384 36.975289
O -5.364589 7.910650 39.640081
C -8.238147 4.846007 36.975289
O -8.426370 4.511484 39.640081
C -9.270964 -2.323808 41.008493
O -9.170503 -2.694268 43.673286
C -7.129104 -6.366061 41.008493
O -6.867988 -6.647401 43.673286
C -3.354051 -8.949927 41.008493
O -2.992100 -9.077694 43.673286
C 1.189373 -9.483472 41.008493
O 1.569242 -9.428398 43.673286
C 5.460327 -7.844468 41.008493
O 5.771089 -7.619168 43.673286
C 8.480386 -4.408391 41.008493
O 8.650850 -4.064480 43.673286
C 9.557690 0.037595 41.008493
O 9.548805 0.421332 43.673286
C 8.445443 4.474969 41.008493
O 8.259244 4.810622 43.673286
C 5.398447 7.887181 41.008493
O 5.077590 8.097857 43.673286
C 1.114731 9.492535 41.008493
O 0.732721 9.529970 43.673286
C -3.424356 8.923264 41.008493
O -3.780006 8.778881 43.673286
C -7.178964 6.309780 41.008493
O -7.426778 6.016657 43.673286
C -9.288958 2.250802 41.008493
O -9.372166 1.876089 43.673286
